Test_Network/condensed/network_17/Feeder_3/Loads - Copy.txt
New Load.LOAD1 Phases=1 Bus1=76.2 kV=0.23 kW=1 PF=0.95
New Load.LOAD2 Phases=1 Bus1=83.2 kV=0.23 kW=1 PF=0.95
New Load.LOAD3 Phases=1 Bus1=103.3 kV=0.23 kW=1 PF=0.95
New Load.LOAD4 Phases=1 Bus1=111.2 kV=0.23 kW=1 PF=0.95
New Load.LOAD5 Phases=1 Bus1=163.1 kV=0.23 kW=1 PF=0.95
New Load.LOAD6 Phases=1 Bus1=173.1 kV=0.23 kW=1 PF=0.95
New Load.LOAD7 Phases=1 Bus1=200.3 kV=0.23 kW=1 PF=0.95
New Load.LOAD8 Phases=1 Bus1=207.2 kV=0.23 kW=1 PF=0.95
New Load.LOAD9 Phases=1 Bus1=258.1 kV=0.23 kW=1 PF=0.95
New Load.LOAD10 Phases=1 Bus1=262.3 kV=0.23 kW=1 PF=0.95
New Load.LOAD11 Phases=1 Bus1=267.1 kV=0.23 kW=1 PF=0.95
New Load.LOAD12 Phases=1 Bus1=273.2 kV=0.23 kW=1 PF=0.95
New Load.LOAD13 Phases=1 Bus1=297.2 kV=0.23 kW=1 PF=0.95
New Load.LOAD14 Phases=1 Bus1=308.1 kV=0.23 kW=1 PF=0.95
New Load.LOAD15 Phases=1 Bus1=309.1 kV=0.23 kW=1 PF=0.95
New Load.LOAD16 Phases=1 Bus1=327.1 kV=0.23 kW=1 PF=0.95
New Load.LOAD17 Phases=1 Bus1=341.1 kV=0.23 kW=1 PF=0.95
New Load.LOAD18 Phases=1 Bus1=346.3 kV=0.23 kW=1 PF=0.95
New Load.LOAD19 Phases=1 Bus1=347.3 kV=0.23 kW=1 PF=0.95
New Load.LOAD20 Phases=1 Bus1=352.3 kV=0.23 kW=1 PF=0.95
New Load.LOAD21 Phases=1 Bus1=353.3 kV=0.23 kW=1 PF=0.95
New Load.LOAD22 Phases=1 Bus1=354.2 kV=0.23 kW=1 PF=0.95
New Load.LOAD23 Phases=1 Bus1=363.2 kV=0.23 kW=1 PF=0.95
New Load.LOAD24 Phases=1 Bus1=364.2 kV=0.23 kW=1 PF=0.95
New Load.LOAD25 Phases=1 Bus1=374.1 kV=0.23 kW=1 PF=0.95
New Load.LOAD26 Phases=1 Bus1=405.3 kV=0.23 kW=1 PF=0.95
New Load.LOAD27 Phases=1 Bus1=445.2 kV=0.23 kW=1 PF=0.95
New Load.LOAD28 Phases=1 Bus1=468.2 kV=0.23 kW=1 PF=0.95
New Load.LOAD29 Phases=1 Bus1=475.2 kV=0.23 kW=1 PF=0.95
New Load.LOAD30 Phases=1 Bus1=511.1 kV=0.23 kW=1 PF=0.95
New Load.LOAD31 Phases=1 Bus1=520.2 kV=0.23 kW=1 PF=0.95
New Load.LOAD32 Phases=1 Bus1=543.3 kV=0.23 kW=1 PF=0.95
New Load.LOAD33 Phases=1 Bus1=544.2 kV=0.23 kW=1 PF=0.95
New Load.LOAD34 Phases=1 Bus1=571.2 kV=0.23 kW=1 PF=0.95
New Load.LOAD35 Phases=1 Bus1=572.3 kV=0.23 kW=1 PF=0.95
New Load.LOAD36 Phases=1 Bus1=607.2 kV=0.23 kW=1 PF=0.95
New Load.LOAD37 Phases=1 Bus1=614.2 kV=0.23 kW=1 PF=0.95
New Load.LOAD38 Phases=1 Bus1=626.1 kV=0.23 kW=1 PF=0.95
New Load.LOAD39 Phases=1 Bus1=638.3 kV=0.23 kW=1 PF=0.95
New Load.LOAD40 Phases=1 Bus1=643.2 kV=0.23 kW=1 PF=0.95
New Load.LOAD41 Phases=1 Bus1=644.2 kV=0.23 kW=1 PF=0.95
New Load.LOAD42 Phases=1 Bus1=651.1 kV=0.23 kW=1 PF=0.95
New Load.LOAD43 Phases=1 Bus1=655.1 kV=0.23 kW=1 PF=0.95
New Load.LOAD44 Phases=1 Bus1=656.1 kV=0.23 kW=1 PF=0.95
New Load.LOAD45 Phases=1 Bus1=734.3 kV=0.23 kW=1 PF=0.95
New Load.LOAD46 Phases=1 Bus1=743.2 kV=0.23 kW=1 PF=0.95
New Load.LOAD47 Phases=1 Bus1=744.1 kV=0.23 kW=1 PF=0.95
New Load.LOAD48 Phases=1 Bus1=753.2 kV=0.23 kW=1 PF=0.95
New Load.LOAD49 Phases=1 Bus1=768.1 kV=0.23 kW=1 PF=0.95
New Load.LOAD50 Phases=1 Bus1=792.3 kV=0.23 kW=1 PF=0.95
New Load.LOAD51 Phases=1 Bus1=793.2 kV=0.23 kW=1 PF=0.95
New Load.LOAD52 Phases=1 Bus1=822.1 kV=0.23 kW=1 PF=0.95
New Load.LOAD53 Phases=1 Bus1=850.3 kV=0.23 kW=1 PF=0.95
New Load.LOAD54 Phases=1 Bus1=858.1 kV=0.23 kW=1 PF=0.95
New Load.LOAD55 Phases=1 Bus1=887.3 kV=0.23 kW=1 PF=0.95
New Load.LOAD56 Phases=1 Bus1=888.2 kV=0.23 kW=1 PF=0.95
New Load.LOAD57 Phases=1 Bus1=923.2 kV=0.23 kW=1 PF=0.95
New Load.LOAD58 Phases=1 Bus1=925.1 kV=0.23 kW=1 PF=0.95
New Load.LOAD59 Phases=1 Bus1=936.3 kV=0.23 kW=1 PF=0.95
New Load.LOAD60 Phases=1 Bus1=953.1 kV=0.23 kW=1 PF=0.95
New Load.LOAD61 Phases=1 Bus1=984.2 kV=0.23 kW=1 PF=0.95
New Load.LOAD62 Phases=1 Bus1=986.1 kV=0.23 kW=1 PF=0.95
New Load.LOAD63 Phases=1 Bus1=989.2 kV=0.23 kW=1 PF=0.95
New Load.LOAD64 Phases=1 Bus1=995.1 kV=0.23 kW=1 PF=0.95
New Load.LOAD65 Phases=1 Bus1=1027.3 kV=0.23 kW=1 PF=0.95
New Load.LOAD66 Phases=1 Bus1=1037.1 kV=0.23 kW=1 PF=0.95
New Load.LOAD67 Phases=1 Bus1=1039.2 kV=0.23 kW=1 PF=0.95
New Load.LOAD68 Phases=1 Bus1=1040.1 kV=0.23 kW=1 PF=0.95
New Load.LOAD69 Phases=1 Bus1=1062.2 kV=0.23 kW=1 PF=0.95
New Load.LOAD70 Phases=1 Bus1=1064.3 kV=0.23 kW=1 PF=0.95
New Load.LOAD71 Phases=1 Bus1=1071.3 kV=0.23 kW=1 PF=0.95
New Load.LOAD72 Phases=1 Bus1=1083.1 kV=0.23 kW=1 PF=0.95
New Load.LOAD73 Phases=1 Bus1=1099.3 kV=0.23 kW=1 PF=0.95
New Load.LOAD74 Phases=1 Bus1=1103.2 kV=0.23 kW=1 PF=0.95
New Load.LOAD75 Phases=1 Bus1=1122.3 kV=0.23 kW=1 PF=0.95
New Load.LOAD76 Phases=1 Bus1=1129.2 kV=0.23 kW=1 PF=0.95
New Load.LOAD77 Phases=1 Bus1=1131.1 kV=0.23 kW=1 PF=0.95
New Load.LOAD78 Phases=1 Bus1=1133.3 kV=0.23 kW=1 PF=0.95
